&NAMIOS
CFRCF="./rcf",
CIOSPRF="./srf",
!B
/
&NAMGRIB 
CFCLASS="rd",
NCYCLE=154,
/
&NAMCVER
LVERTFE=true,
NVSCH=3,
LVFE_GWMPA=true,
LVFE_GW=false,
LVFE_Z_TERM=false,
LVFE_X_TERM=false,
LVFE_LAPL_BC=true,
LVFE_LAPL=true,
NDLNPR=0,
/
&NAMMCC
LMCC_COMPO=.true.
LMCCEC=true,
LMCCIEC=false,
/
&NAMTRANS
LUSEFLT=false,
LFFTW=false,
/
&NAERAD
CRTABLEDIR='./ifsdata/',
LECOMPGRID=false,
RMUZUV=0.01,
NUVTIM=72,
NRADUV=1,
NUV=24,
LUVPROC=false,
LUVAERP=true,
LO3_CHEM_UV=true,
KMODTS=2,
NAERMACC=0
NAEROOPT=2
NCLOUDACT=0
NRPROMA=0,
/
&NAEPHY
LNEEONLINE=true,
LWETONLINE=false,
LBFASCO2=false,
LEPHYS=true,
LEVDIF=true,
LESURF=true,
LECOND=true,
LECUMF=true,
LEPCLD=true,
LEEVAP=true,
LEVGEN=true,
LESSRO=true,
LECURR=false,
LEOCWA=true,
LEGWDG=true,
LEGWWMS=true,
LEOZOC=true,
LEQNGT=true,
LERADI=true,
LERADS=true,
LESICE=true,
LEO3CH=true,
LO3CH_HLO=true,
CO3CHEM="H1.0",
LEDCLD=true,
LDUCTDIA=false,
LDIAGTURB_EC=false,
LELIGHT=false,
LWCOU=.false.
LWCOU2W=true,
LWCOUHMF=false,
LWCOURNW=false,
NSTPW=1,
LSLPHY=true,
LESNML=true,
NSNMLWS=2,
LEFARQUHAR=true,
LEOPTSURF=false,
LEAIRCO2COUP=false,
LEC4MAP=true,
LEAGS=false,
/
&NAMPAR1
NOUTTYPE=1,
LSPLIT=true,
NWRTOUT=4,
NFLDIN=0,
NSTRIN=1,
/
&NAMPAR0
LXML_STATS=false,
LSTATS=true,
LDETAILED_STATS=false,
LSYNCSTATS=false,
LSTATSCPU=false,
NPRNT_STATS=256
LBARRIER_STATS=false,
LBARRIER_STATS2=false,
NPROC=256
NSPECRESMIN=256,
NOUTPUT=1,
MP_TYPE=1,
MBX_SIZE=0,
/
&NAMDYNA
LSLAG=true,
LNHEE=false,
LNHQE=false,
LGRADSP=true,
LCOMAD_GFL=true,
LCOMADH=true,
/
&NAMDYNCORE
LAQUA=false,
/
&NAMDYN
LMASCOR=true,
NITMP=3,
/
&NAMCT0
LARPEGEF=false,
LFDBOP=false,
LSMSSIG=false,
N3DINI=0,
NFRDHP=12,
NFRDHFD=1,
NFRSDI=1,
NFRPOS=6,
NFRHIS=6,
NFRMASSCON=1,
NFPOS=2,
NPOSTS=0,
NHISTS=0,
NMASSCONS=0,
NFRCO=4,
NFRDHFZ=48,
NDHFZTS=0,
NDHFDTS=0,
NUNDEFLD=-999999,
CMETER="ecflow_client --meter",
CEVENT="ecflow_client --event",
/
&NAMDDH
BDEDDH(1:6,1)=4.0,1.0,0.0,50.0,0.0,49.0,
NDHKD=120,
LHDZON=false,
LHDEFZ=false,
LHDDOP=false,
LHDEFD=false,
LHDGLB=false,
LHDPRG=false,
LHDHKS=false,
/
&NAMIO_SERV
NPROCESS_LEVEL=5,
NIO_SERV_METHOD=2,
NMSG_LEVEL_CLIENT=0,
NMSG_LEVEL_SERVER=1,
/
&NAMGFL
NAERO=40,
NACTAERO=39,
YAERO_NL(1)%CNAME='SO4',
YAERO_NL(1)%IGRBCODE=210011,
YAERO_NL(1)%LMASSFIX=.true.,
YAERO_NL(1)%LCOMAD=.true.,
YAERO_NL(1)%LQM=.false.,
YAERO_NL(1)%LQM3D=.true.,
YAERO_NL(1)%BETAMFBC=-999,
YAERO_NL(1)%LADV=.true.,
YAERO_NL(1)%NREQIN=1,

YAERO_NL(2)%CNAME='NH4',
YAERO_NL(2)%IGRBCODE=212035,
YAERO_NL(2)%LMASSFIX=.true.,
YAERO_NL(2)%LCOMAD=.true.,
YAERO_NL(2)%LQM=.false.,
YAERO_NL(2)%LQM3D=.true.,
YAERO_NL(2)%BETAMFBC=-999,
YAERO_NL(2)%LADV=.true.,
YAERO_NL(2)%NREQIN=1,

YAERO_NL(3)%CNAME='NO3_A',
YAERO_NL(3)%IGRBCODE=212036,
YAERO_NL(3)%LMASSFIX=.true.,
YAERO_NL(3)%LCOMAD=.true.,
YAERO_NL(3)%LQM=.false.,
YAERO_NL(3)%LQM3D=.true.,
YAERO_NL(3)%BETAMFBC=-999,
YAERO_NL(3)%LADV=.true.,
YAERO_NL(3)%NREQIN=1,

YAERO_NL(4)%CNAME='AS_N',
YAERO_NL(4)%IGRBCODE=212001,
YAERO_NL(4)%LMASSFIX=.true.,
YAERO_NL(4)%LCOMAD=.true.,
YAERO_NL(4)%LQM=.false.,
YAERO_NL(4)%LQM3D=.true.,
YAERO_NL(4)%BETAMFBC=-999,
YAERO_NL(4)%LADV=.true.,
YAERO_NL(4)%NREQIN=1,
YAERO_NL(5)%CNAME='SO4_AS',
YAERO_NL(5)%IGRBCODE=212002,
YAERO_NL(5)%LMASSFIX=.true.,
YAERO_NL(5)%LCOMAD=.true.,
YAERO_NL(5)%LQM=.false.,
YAERO_NL(5)%LQM3D=.true.,
YAERO_NL(5)%BETAMFBC=-999,
YAERO_NL(5)%LADV=.true.,
YAERO_NL(5)%NREQIN=1,
YAERO_NL(6)%CNAME='BC_AS',
YAERO_NL(6)%IGRBCODE=212003,
YAERO_NL(6)%LMASSFIX=.true.,
YAERO_NL(6)%LCOMAD=.true.,
YAERO_NL(6)%LQM=.false.,
YAERO_NL(6)%LQM3D=.true.,
YAERO_NL(6)%BETAMFBC=-999,
YAERO_NL(6)%LADV=.true.,
YAERO_NL(6)%NREQIN=1,
YAERO_NL(7)%CNAME='POM_AS',
YAERO_NL(7)%IGRBCODE=212004,
YAERO_NL(7)%LMASSFIX=.true.,
YAERO_NL(7)%LCOMAD=.true.,
YAERO_NL(7)%LQM=.false.,
YAERO_NL(7)%LQM3D=.true.,
YAERO_NL(7)%BETAMFBC=-999,
YAERO_NL(7)%LADV=.true.,
YAERO_NL(7)%NREQIN=1,
YAERO_NL(8)%CNAME='SS_AS',
YAERO_NL(8)%IGRBCODE=212005,
YAERO_NL(8)%LMASSFIX=.true.,
YAERO_NL(8)%LCOMAD=.true.,
YAERO_NL(8)%LQM=.false.,
YAERO_NL(8)%LQM3D=.true.,
YAERO_NL(8)%BETAMFBC=-999,
YAERO_NL(8)%LADV=.true.,
YAERO_NL(8)%NREQIN=1,
YAERO_NL(9)%CNAME='DU_AS',
YAERO_NL(9)%IGRBCODE=212006,
YAERO_NL(9)%LMASSFIX=.true.,
YAERO_NL(9)%LCOMAD=.true.,
YAERO_NL(9)%LQM=.false.,
YAERO_NL(9)%LQM3D=.true.,
YAERO_NL(9)%BETAMFBC=-999,
YAERO_NL(9)%LADV=.true.,
YAERO_NL(9)%NREQIN=1,
YAERO_NL(10)%CNAME='SOA_NS',
YAERO_NL(10)%IGRBCODE=212007,
YAERO_NL(10)%LMASSFIX=.true.,
YAERO_NL(10)%LCOMAD=.true.,
YAERO_NL(10)%LQM=.false.,
YAERO_NL(10)%LQM3D=.true.,
YAERO_NL(10)%BETAMFBC=-999,
YAERO_NL(10)%LADV=.true.,
YAERO_NL(10)%NREQIN=1,
YAERO_NL(11)%CNAME='SOA_KS',
YAERO_NL(11)%IGRBCODE=212008,
YAERO_NL(11)%LMASSFIX=.true.,
YAERO_NL(11)%LCOMAD=.true.,
YAERO_NL(11)%LQM=.false.,
YAERO_NL(11)%LQM3D=.true.,
YAERO_NL(11)%BETAMFBC=-999,
YAERO_NL(11)%LADV=.true.,
YAERO_NL(11)%NREQIN=1,
YAERO_NL(12)%CNAME='SOA_AS',
YAERO_NL(12)%IGRBCODE=212009,
YAERO_NL(12)%LMASSFIX=.true.,
YAERO_NL(12)%LCOMAD=.true.,
YAERO_NL(12)%LQM=.false.,
YAERO_NL(12)%LQM3D=.true.,
YAERO_NL(12)%BETAMFBC=-999,
YAERO_NL(12)%LADV=.true.,
YAERO_NL(12)%NREQIN=1,
YAERO_NL(13)%CNAME='SOA_CS',
YAERO_NL(13)%IGRBCODE=212010,
YAERO_NL(13)%LMASSFIX=.true.,
YAERO_NL(13)%LCOMAD=.true.,
YAERO_NL(13)%LQM=.false.,
YAERO_NL(13)%LQM3D=.true.,
YAERO_NL(13)%BETAMFBC=-999,
YAERO_NL(13)%LADV=.true.,
YAERO_NL(13)%NREQIN=1,
YAERO_NL(14)%CNAME='SOA_KI',
YAERO_NL(14)%IGRBCODE=212011,
YAERO_NL(14)%LMASSFIX=.true.,
YAERO_NL(14)%LCOMAD=.true.,
YAERO_NL(14)%LQM=.false.,
YAERO_NL(14)%LQM3D=.true.,
YAERO_NL(14)%BETAMFBC=-999,
YAERO_NL(14)%LADV=.true.,
YAERO_NL(14)%NREQIN=1,
YAERO_NL(15)%CNAME='H2OPART',
YAERO_NL(15)%IGRBCODE=212012,
YAERO_NL(15)%LMASSFIX=.true.,
YAERO_NL(15)%LCOMAD=.true.,
YAERO_NL(15)%LQM=.false.,
YAERO_NL(15)%LQM3D=.true.,
YAERO_NL(15)%BETAMFBC=-999,
YAERO_NL(15)%LADV=.true.,
YAERO_NL(15)%NREQIN=1,
YAERO_NL(16)%CNAME='KI_N',
YAERO_NL(16)%IGRBCODE=212013,
YAERO_NL(16)%LMASSFIX=.true.,
YAERO_NL(16)%LCOMAD=.true.,
YAERO_NL(16)%LQM=.false.,
YAERO_NL(16)%LQM3D=.true.,
YAERO_NL(16)%BETAMFBC=-999,
YAERO_NL(16)%LADV=.true.,
YAERO_NL(16)%NREQIN=1,
YAERO_NL(17)%CNAME='BC_KI',
YAERO_NL(17)%IGRBCODE=212014,
YAERO_NL(17)%LMASSFIX=.true.,
YAERO_NL(17)%LCOMAD=.true.,
YAERO_NL(17)%LQM=.false.,
YAERO_NL(17)%LQM3D=.true.,
YAERO_NL(17)%BETAMFBC=-999,
YAERO_NL(17)%LADV=.true.,
YAERO_NL(17)%NREQIN=1,
YAERO_NL(18)%CNAME='POM_KI',
YAERO_NL(18)%IGRBCODE=212015,
YAERO_NL(18)%LMASSFIX=.true.,
YAERO_NL(18)%LCOMAD=.true.,
YAERO_NL(18)%LQM=.false.,
YAERO_NL(18)%LQM3D=.true.,
YAERO_NL(18)%BETAMFBC=-999,
YAERO_NL(18)%LADV=.true.,
YAERO_NL(18)%NREQIN=0,
YAERO_NL(19)%CNAME='AI_N',
YAERO_NL(19)%IGRBCODE=212016,
YAERO_NL(19)%LMASSFIX=.true.,
YAERO_NL(19)%LCOMAD=.true.,
YAERO_NL(19)%LQM=.false.,
YAERO_NL(19)%LQM3D=.true.,
YAERO_NL(19)%BETAMFBC=-999,
YAERO_NL(19)%LADV=.true.,
YAERO_NL(19)%NREQIN=1,
YAERO_NL(20)%CNAME='DU_AI',
YAERO_NL(20)%IGRBCODE=212017,
YAERO_NL(20)%LMASSFIX=.true.,
YAERO_NL(20)%LCOMAD=.true.,
YAERO_NL(20)%LQM=.false.,
YAERO_NL(20)%LQM3D=.true.,
YAERO_NL(20)%BETAMFBC=-999,
YAERO_NL(20)%LADV=.true.,
YAERO_NL(20)%NREQIN=1,
YAERO_NL(21)%CNAME='KS_N',
YAERO_NL(21)%IGRBCODE=212018,
YAERO_NL(21)%LMASSFIX=.true.,
YAERO_NL(21)%LCOMAD=.true.,
YAERO_NL(21)%LQM=.false.,
YAERO_NL(21)%LQM3D=.true.,
YAERO_NL(21)%BETAMFBC=-999,
YAERO_NL(21)%LADV=.true.,
YAERO_NL(21)%NREQIN=1,
YAERO_NL(22)%CNAME='SO4_KS',
YAERO_NL(22)%IGRBCODE=212019,
YAERO_NL(22)%LMASSFIX=.true.,
YAERO_NL(22)%LCOMAD=.true.,
YAERO_NL(22)%LQM=.false.,
YAERO_NL(22)%LQM3D=.true.,
YAERO_NL(22)%BETAMFBC=-999,
YAERO_NL(22)%LADV=.true.,
YAERO_NL(22)%NREQIN=1,
YAERO_NL(23)%CNAME='BC_KS',
YAERO_NL(23)%IGRBCODE=212020,
YAERO_NL(23)%LMASSFIX=.true.,
YAERO_NL(23)%LCOMAD=.true.,
YAERO_NL(23)%LQM=.false.,
YAERO_NL(23)%LQM3D=.true.,
YAERO_NL(23)%BETAMFBC=-999,
YAERO_NL(23)%LADV=.true.,
YAERO_NL(23)%NREQIN=1,
YAERO_NL(24)%CNAME='POM_KS',
YAERO_NL(24)%IGRBCODE=212021,
YAERO_NL(24)%LMASSFIX=.true.,
YAERO_NL(24)%LCOMAD=.true.,
YAERO_NL(24)%LQM=.false.,
YAERO_NL(24)%LQM3D=.true.,
YAERO_NL(24)%BETAMFBC=-999,
YAERO_NL(24)%LADV=.true.,
YAERO_NL(24)%NREQIN=1,
YAERO_NL(25)%CNAME='CI_N',
YAERO_NL(25)%IGRBCODE=212022,
YAERO_NL(25)%LMASSFIX=.true.,
YAERO_NL(25)%LCOMAD=.true.,
YAERO_NL(25)%LQM=.false.,
YAERO_NL(25)%LQM3D=.true.,
YAERO_NL(25)%BETAMFBC=-999,
YAERO_NL(25)%LADV=.true.,
YAERO_NL(25)%NREQIN=1,
YAERO_NL(26)%CNAME='DU_CI',
YAERO_NL(26)%IGRBCODE=212023,
YAERO_NL(26)%LMASSFIX=.true.,
YAERO_NL(26)%LCOMAD=.true.,
YAERO_NL(26)%LQM=.false.,
YAERO_NL(26)%LQM3D=.true.,
YAERO_NL(26)%BETAMFBC=-999,
YAERO_NL(26)%LADV=.true.,
YAERO_NL(26)%NREQIN=1,
YAERO_NL(27)%CNAME='CS_N',
YAERO_NL(27)%IGRBCODE=212024,
YAERO_NL(27)%LMASSFIX=.true.,
YAERO_NL(27)%LCOMAD=.true.,
YAERO_NL(27)%LQM=.false.,
YAERO_NL(27)%LQM3D=.true.,
YAERO_NL(27)%BETAMFBC=-999,
YAERO_NL(27)%LADV=.true.,
YAERO_NL(27)%NREQIN=1,
YAERO_NL(28)%CNAME='SO4_CS',
YAERO_NL(28)%IGRBCODE=212025,
YAERO_NL(28)%LMASSFIX=.true.,
YAERO_NL(28)%LCOMAD=.true.,
YAERO_NL(28)%LQM=.false.,
YAERO_NL(28)%LQM3D=.true.,
YAERO_NL(28)%BETAMFBC=-999,
YAERO_NL(28)%LADV=.true.,
YAERO_NL(28)%NREQIN=1,
YAERO_NL(29)%CNAME='BC_CS',
YAERO_NL(29)%IGRBCODE=212026,
YAERO_NL(29)%LMASSFIX=.true.,
YAERO_NL(29)%LCOMAD=.true.,
YAERO_NL(29)%LQM=.false.,
YAERO_NL(29)%LQM3D=.true.,
YAERO_NL(29)%BETAMFBC=-999,
YAERO_NL(29)%LADV=.true.,
YAERO_NL(29)%NREQIN=1,
YAERO_NL(30)%CNAME='POM_CS',
YAERO_NL(30)%IGRBCODE=212027,
YAERO_NL(30)%LMASSFIX=.true.,
YAERO_NL(30)%LCOMAD=.true.,
YAERO_NL(30)%LQM=.false.,
YAERO_NL(30)%LQM3D=.true.,
YAERO_NL(30)%BETAMFBC=-999,
YAERO_NL(30)%LADV=.true.,
YAERO_NL(30)%NREQIN=1,
YAERO_NL(31)%CNAME='SS_CS',
YAERO_NL(31)%IGRBCODE=212028,
YAERO_NL(31)%LMASSFIX=.true.,
YAERO_NL(31)%LCOMAD=.true.,
YAERO_NL(31)%LQM=.false.,
YAERO_NL(31)%LQM3D=.true.,
YAERO_NL(31)%BETAMFBC=-999,
YAERO_NL(31)%LADV=.true.,
YAERO_NL(31)%NREQIN=1,
YAERO_NL(32)%CNAME='DU_CS',
YAERO_NL(32)%IGRBCODE=212029,
YAERO_NL(32)%LMASSFIX=.true.,
YAERO_NL(32)%LCOMAD=.true.,
YAERO_NL(32)%LQM=.false.,
YAERO_NL(32)%LQM3D=.true.,
YAERO_NL(32)%BETAMFBC=-999,
YAERO_NL(32)%LADV=.true.,
YAERO_NL(32)%NREQIN=1,
YAERO_NL(33)%CNAME='NS_N',
YAERO_NL(33)%IGRBCODE=212030,
YAERO_NL(33)%LMASSFIX=.true.,
YAERO_NL(33)%LCOMAD=.true.,
YAERO_NL(33)%LQM=.false.,
YAERO_NL(33)%LQM3D=.true.,
YAERO_NL(33)%BETAMFBC=-999,
YAERO_NL(33)%LADV=.true.,
YAERO_NL(33)%NREQIN=1,
YAERO_NL(34)%CNAME='SO4_NS',
YAERO_NL(34)%IGRBCODE=212031,
YAERO_NL(34)%LMASSFIX=.true.,
YAERO_NL(34)%LCOMAD=.true.,
YAERO_NL(34)%LQM=.false.,
YAERO_NL(34)%LQM3D=.true.,
YAERO_NL(34)%BETAMFBC=-999,
YAERO_NL(34)%LADV=.true.,
YAERO_NL(34)%NREQIN=1,
YAERO_NL(35)%CNAME='ELVOC',
YAERO_NL(35)%IGRBCODE=212032,
YAERO_NL(35)%LMASSFIX=.true.,
YAERO_NL(35)%LCOMAD=.true.,
YAERO_NL(35)%LQM=.false.,
YAERO_NL(35)%LQM3D=.true.,
YAERO_NL(35)%BETAMFBC=-999,
YAERO_NL(35)%LADV=.true.,
YAERO_NL(35)%NREQIN=1,
YAERO_NL(36)%CNAME='ISVOC',
YAERO_NL(36)%IGRBCODE=212033,
YAERO_NL(36)%LMASSFIX=.true.,
YAERO_NL(36)%LCOMAD=.true.,
YAERO_NL(36)%LQM=.false.,
YAERO_NL(36)%LQM3D=.true.,
YAERO_NL(36)%BETAMFBC=-999,
YAERO_NL(36)%LADV=.true.,
YAERO_NL(36)%NREQIN=1,
YAERO_NL(37)%CNAME='MSA',
YAERO_NL(37)%IGRBCODE=212034,
YAERO_NL(37)%LMASSFIX=.true.,
YAERO_NL(37)%LCOMAD=.true.,
YAERO_NL(37)%LQM=.false.,
YAERO_NL(37)%LQM3D=.true.,
YAERO_NL(37)%BETAMFBC=-999,
YAERO_NL(37)%LADV=.true.,
YAERO_NL(37)%NREQIN=1,

YAERO_NL(38)%CNAME='CDNC',
YAERO_NL(38)%NREQIN=0,
YAERO_NL(38)%IGRBCODE=212037,
YAERO_NL(38)%LQM=.TRUE.,
YAERO_NL(38)%LQM3D=.FALSE.,
YAERO_NL(38)%LMASSFIX=.TRUE.,
YAERO_NL(38)%BETAMFBC=-999.9,

YAERO_NL(39)%CNAME='ICNC',
YAERO_NL(39)%NREQIN=0,
YAERO_NL(39)%IGRBCODE=212038,
YAERO_NL(39)%LQM=.TRUE.,
YAERO_NL(39)%LQM3D=.FALSE.,
YAERO_NL(39)%LMASSFIX=.TRUE.,
YAERO_NL(39)%BETAMFBC=-999.9,

YAERO_NL(40)%CNAME='Total_aerosol',
YAERO_NL(40)%IGRBCODE=210048,
YAERO_NL(40)%LADV5=true,


NAEROUT=45,
YAEROUT_NL(1)%CNAME='AEROUT-1',
YAEROUT_NL(1)%IGRBCODE=219001,
YAEROUT_NL(2)%CNAME='AEROUT-2',
YAEROUT_NL(2)%IGRBCODE=219002,
YAEROUT_NL(3)%CNAME='AEROUT-3',
YAEROUT_NL(3)%IGRBCODE=219003,
YAEROUT_NL(4)%CNAME='AEROUT-4',
YAEROUT_NL(4)%IGRBCODE=219004,
YAEROUT_NL(5)%CNAME='AEROUT-5',
YAEROUT_NL(5)%IGRBCODE=219005,
YAEROUT_NL(6)%CNAME='AEROUT-6',
YAEROUT_NL(6)%IGRBCODE=219006,
YAEROUT_NL(7)%CNAME='AEROUT-7',
YAEROUT_NL(7)%IGRBCODE=219007,
YAEROUT_NL(8)%CNAME='AEROUT-8',
YAEROUT_NL(8)%IGRBCODE=219008,
YAEROUT_NL(9)%CNAME='AEROUT-9',
YAEROUT_NL(9)%IGRBCODE=219009,
YAEROUT_NL(10)%CNAME='AEROUT-10',
YAEROUT_NL(10)%IGRBCODE=219010,
YAEROUT_NL(11)%CNAME='AEROUT-11',
YAEROUT_NL(11)%IGRBCODE=219011,
YAEROUT_NL(12)%CNAME='AEROUT-12',
YAEROUT_NL(12)%IGRBCODE=219012,
YAEROUT_NL(13)%CNAME='AEROUT-13',
YAEROUT_NL(13)%IGRBCODE=219013,
YAEROUT_NL(14)%CNAME='AEROUT-14',
YAEROUT_NL(14)%IGRBCODE=219014,
YAEROUT_NL(15)%CNAME='AEROUT-15',
YAEROUT_NL(15)%IGRBCODE=219015,
YAEROUT_NL(16)%CNAME='AEROUT-16',
YAEROUT_NL(16)%IGRBCODE=219016,
YAEROUT_NL(17)%CNAME='AEROUT-17',
YAEROUT_NL(17)%IGRBCODE=219017,
YAEROUT_NL(18)%CNAME='AEROUT-18',
YAEROUT_NL(18)%IGRBCODE=219018,
YAEROUT_NL(19)%CNAME='AEROUT-19',
YAEROUT_NL(19)%IGRBCODE=219019,
YAEROUT_NL(20)%CNAME='AEROUT-20',
YAEROUT_NL(20)%IGRBCODE=219020,
YAEROUT_NL(21)%CNAME='AEROUT-21',
YAEROUT_NL(21)%IGRBCODE=219021,
YAEROUT_NL(22)%CNAME='AEROUT-22',
YAEROUT_NL(22)%IGRBCODE=219022,
YAEROUT_NL(23)%CNAME='AEROUT-23',
YAEROUT_NL(23)%IGRBCODE=219023,
YAEROUT_NL(24)%CNAME='AEROUT-24',
YAEROUT_NL(24)%IGRBCODE=219024,
YAEROUT_NL(25)%CNAME='AEROUT-25',
YAEROUT_NL(25)%IGRBCODE=219025,
YAEROUT_NL(26)%CNAME='AEROUT-26',
YAEROUT_NL(26)%IGRBCODE=219026,
YAEROUT_NL(27)%CNAME='AEROUT-27',
YAEROUT_NL(27)%IGRBCODE=219027,
YAEROUT_NL(28)%CNAME='AEROUT-28',
YAEROUT_NL(28)%IGRBCODE=219028,
YAEROUT_NL(29)%CNAME='AEROUT-29',
YAEROUT_NL(29)%IGRBCODE=219029,
YAEROUT_NL(30)%CNAME='AEROUT-30',
YAEROUT_NL(30)%IGRBCODE=219030,
YAEROUT_NL(31)%CNAME='AEROUT-31',
YAEROUT_NL(31)%IGRBCODE=219031,
YAEROUT_NL(32)%CNAME='AEROUT-32',
YAEROUT_NL(32)%IGRBCODE=219032,
YAEROUT_NL(33)%CNAME='AEROUT-33',
YAEROUT_NL(33)%IGRBCODE=219033,
YAEROUT_NL(34)%CNAME='AEROUT-34',
YAEROUT_NL(34)%IGRBCODE=219034,
YAEROUT_NL(35)%CNAME='AEROUT-35',
YAEROUT_NL(35)%IGRBCODE=219035,
YAEROUT_NL(36)%CNAME='AEROUT-36',
YAEROUT_NL(36)%IGRBCODE=219036,
YAEROUT_NL(37)%CNAME='AEROUT-37',
YAEROUT_NL(37)%IGRBCODE=219037,
YAEROUT_NL(38)%CNAME='AEROUT-38',
YAEROUT_NL(38)%IGRBCODE=219038,
YAEROUT_NL(39)%CNAME='AEROUT-39',
YAEROUT_NL(39)%IGRBCODE=219039,
YAEROUT_NL(40)%CNAME='AEROUT-40',
YAEROUT_NL(40)%IGRBCODE=219040,
YAEROUT_NL(41)%CNAME='AEROUT-41',
YAEROUT_NL(41)%IGRBCODE=219041,
YAEROUT_NL(42)%CNAME='AEROUT-42',
YAEROUT_NL(42)%IGRBCODE=219042,
YAEROUT_NL(43)%CNAME='AEROUT-43',
YAEROUT_NL(43)%IGRBCODE=219043,
YAEROUT_NL(44)%CNAME='AEROUT-44',
YAEROUT_NL(44)%IGRBCODE=219044,
YAEROUT_NL(45)%CNAME='AEROUT-45',
YAEROUT_NL(45)%IGRBCODE=219045,


LAERAOT=false,
LAERLISI=false,
NAERO_WVL_DIAG=6,
NAERO_WVL_DIAG_TYPES=5,
YAERO_WVL_DIAG_NL(1)%IWVL=550,
YAERO_WVL_DIAG_NL(1)%IGRIBDIAG=210207,215104,215122,215140,215158,
YAERO_WVL_DIAG_NL(2)%IWVL=380,
YAERO_WVL_DIAG_NL(2)%IGRIBDIAG=210219,215098,215116,215134,215152,
YAERO_WVL_DIAG_NL(3)%IWVL=440,
YAERO_WVL_DIAG_NL(3)%IGRIBDIAG=210221,215100,215118,215136,215154,
YAERO_WVL_DIAG_NL(4)%IWVL=670,
YAERO_WVL_DIAG_NL(4)%IGRIBDIAG=210214,215106,215124,215142,215160,
YAERO_WVL_DIAG_NL(5)%IWVL=870,
YAERO_WVL_DIAG_NL(5)%IGRIBDIAG=210215,215109,215127,215145,215163,
YAERO_WVL_DIAG_NL(6)%IWVL=1020,
YAERO_WVL_DIAG_NL(6)%IGRIBDIAG=210227,215110,215128,215146,215164,
NCHEM=74,
YCHEM_NL(1)%CNAME='O3',
YCHEM_NL(1)%NREQIN=1,
YCHEM_NL(1)%RMOLMASS=48.0,
YCHEM_NL(1)%IGRBCODE=210203,
YCHEM_NL(1)%LNEGFIX=.TRUE.,
YCHEM_NL(1)%IGRIBTC=210206,
YCHEM_NL(1)%IGRIBDV=221001,
YCHEM_NL(1)%HENRYA=1.0e-2,
YCHEM_NL(1)%HENRYB=2800.0,
YCHEM_NL(1)%LQM=.false.,
YCHEM_NL(1)%LQM3D=.TRUE.,
YCHEM_NL(1)%LCOMAD=.true.,
YCHEM_NL(1)%LADV=.TRUE.,
YCHEM_NL(1)%LMASSFIX=.TRUE.,
YCHEM_NL(1)%BETAMFBC=-999.9,
YCHEM_NL(1)%LASSIM=.TRUE.,
YCHEM_NL(1)%LADV5=.TRUE.,
YCHEM_NL(2)%CNAME='NOx',
YCHEM_NL(2)%NREQIN=0,
YCHEM_NL(2)%RMOLMASS=14.0,
YCHEM_NL(2)%IGRBCODE=210129,
YCHEM_NL(2)%LNEGFIX=.TRUE.,
YCHEM_NL(2)%IGRIBTC=210130,
YCHEM_NL(2)%LQM=.false.,
YCHEM_NL(2)%LQM3D=.TRUE.,
YCHEM_NL(2)%LCOMAD=.true.,
YCHEM_NL(2)%LADV=.TRUE.,
YCHEM_NL(2)%LMASSFIX=.TRUE.,
YCHEM_NL(2)%BETAMFBC=-999.9,
YCHEM_NL(2)%LASSIM=.FALSE.,
YCHEM_NL(3)%CNAME='H2O2',
YCHEM_NL(3)%NREQIN=1,
YCHEM_NL(3)%RMOLMASS=34.0,
YCHEM_NL(3)%IGRBCODE=217003,
YCHEM_NL(3)%LNEGFIX=.TRUE.,
YCHEM_NL(3)%IGRIBTC=218003,
YCHEM_NL(3)%IGRIBDV=221003,
YCHEM_NL(3)%HENRYA=8.3e4,
YCHEM_NL(3)%HENRYB=7600.0,
YCHEM_NL(3)%LQM=.false.,
YCHEM_NL(3)%LQM3D=.TRUE.,
YCHEM_NL(3)%LCOMAD=.true.,
YCHEM_NL(3)%LADV=.TRUE.,
YCHEM_NL(3)%LMASSFIX=.TRUE.,
YCHEM_NL(3)%BETAMFBC=-999.9,
YCHEM_NL(3)%LASSIM=.FALSE.,
YCHEM_NL(4)%CNAME='CH4',
YCHEM_NL(4)%NREQIN=1,
YCHEM_NL(4)%RMOLMASS=16.0,
YCHEM_NL(4)%IGRBCODE=217004,
YCHEM_NL(4)%LNEGFIX=.TRUE.,
YCHEM_NL(4)%IGRIBTC=218004,
YCHEM_NL(4)%LQM=.false.,
YCHEM_NL(4)%LQM3D=.TRUE.,
YCHEM_NL(4)%LCOMAD=.true.,
YCHEM_NL(4)%LADV=.TRUE.,
YCHEM_NL(4)%LMASSFIX=.TRUE.,
YCHEM_NL(4)%BETAMFBC=-999.9,
YCHEM_NL(4)%LASSIM=.FALSE.,
YCHEM_NL(5)%CNAME='CO',
YCHEM_NL(5)%NREQIN=1,
YCHEM_NL(5)%RMOLMASS=28.0,
YCHEM_NL(5)%IGRBCODE=210123,
YCHEM_NL(5)%LNEGFIX=.TRUE.,
YCHEM_NL(5)%IGRIBTC=210127,
YCHEM_NL(5)%IGRIBDV=221005,
YCHEM_NL(5)%HENRYA=9.7e-4,
YCHEM_NL(5)%HENRYB=1300.0,
YCHEM_NL(5)%LQM=.false.,
YCHEM_NL(5)%LQM3D=.TRUE.,
YCHEM_NL(5)%LCOMAD=.true.,
YCHEM_NL(5)%LADV=.TRUE.,
YCHEM_NL(5)%LMASSFIX=.TRUE.,
YCHEM_NL(5)%BETAMFBC=-999.9,
YCHEM_NL(5)%LASSIM=.TRUE.,
YCHEM_NL(5)%LADV5=.TRUE.,
YCHEM_NL(6)%CNAME='HNO3',
YCHEM_NL(6)%NREQIN=1,
YCHEM_NL(6)%RMOLMASS=63.0,
YCHEM_NL(6)%IGRBCODE=217006,
YCHEM_NL(6)%LNEGFIX=.TRUE.,
YCHEM_NL(6)%IGRIBTC=218006,
YCHEM_NL(6)%IGRIBDV=221006,
YCHEM_NL(6)%HENRYA=3.2e11,
YCHEM_NL(6)%HENRYB=8700.0,
YCHEM_NL(6)%LQM=.false.,
YCHEM_NL(6)%LQM3D=.TRUE.,
YCHEM_NL(6)%LCOMAD=.true.,
YCHEM_NL(6)%LADV=.TRUE.,
YCHEM_NL(6)%LMASSFIX=.TRUE.,
YCHEM_NL(6)%BETAMFBC=-999.9,
YCHEM_NL(6)%LASSIM=.FALSE.,
YCHEM_NL(7)%CNAME='CH3OOH',
YCHEM_NL(7)%NREQIN=1,
YCHEM_NL(7)%RMOLMASS=48.0,
YCHEM_NL(7)%IGRBCODE=217007,
YCHEM_NL(7)%LNEGFIX=.TRUE.,
YCHEM_NL(7)%IGRIBTC=218007,
YCHEM_NL(7)%IGRIBDV=221007,
YCHEM_NL(7)%HENRYA=2.9e2,
YCHEM_NL(7)%HENRYB=5200.0,
YCHEM_NL(7)%LQM=.false.,
YCHEM_NL(7)%LQM3D=.TRUE.,
YCHEM_NL(7)%LCOMAD=.true.,
YCHEM_NL(7)%LADV=.TRUE.,
YCHEM_NL(7)%LMASSFIX=.TRUE.,
YCHEM_NL(7)%BETAMFBC=-999.9,
YCHEM_NL(7)%LASSIM=.FALSE.,
YCHEM_NL(8)%CNAME='CH2O',
YCHEM_NL(8)%NREQIN=1,
YCHEM_NL(8)%RMOLMASS=30.0,
YCHEM_NL(8)%IGRBCODE=210124,
YCHEM_NL(8)%LNEGFIX=.TRUE.,
YCHEM_NL(8)%IGRIBTC=210128,
YCHEM_NL(8)%IGRIBDV=221008,
YCHEM_NL(8)%HENRYA=3.2e3,
YCHEM_NL(8)%HENRYB=6800.0,
YCHEM_NL(8)%LQM=.false.,
YCHEM_NL(8)%LQM3D=.TRUE.,
YCHEM_NL(8)%LCOMAD=.true.,
YCHEM_NL(8)%LADV=.TRUE.,
YCHEM_NL(8)%LMASSFIX=.TRUE.,
YCHEM_NL(8)%BETAMFBC=-999.9,
YCHEM_NL(8)%LASSIM=.TRUE.,
YCHEM_NL(8)%LADV5=.TRUE.,
YCHEM_NL(9)%CNAME='PAR',
YCHEM_NL(9)%NREQIN=1,
YCHEM_NL(9)%RMOLMASS=12.0,
YCHEM_NL(9)%IGRBCODE=217009,
YCHEM_NL(9)%LNEGFIX=.TRUE.,
YCHEM_NL(9)%IGRIBTC=218009,
YCHEM_NL(9)%LQM=.false.,
YCHEM_NL(9)%LQM3D=.TRUE.,
YCHEM_NL(9)%LCOMAD=.true.,
YCHEM_NL(9)%LADV=.TRUE.,
YCHEM_NL(9)%LMASSFIX=.TRUE.,
YCHEM_NL(9)%BETAMFBC=-999.9,
YCHEM_NL(9)%LASSIM=.FALSE.,
YCHEM_NL(10)%CNAME='C2H4',
YCHEM_NL(10)%NREQIN=1,
YCHEM_NL(10)%RMOLMASS=28.0,
YCHEM_NL(10)%IGRBCODE=217010,
YCHEM_NL(10)%LNEGFIX=.TRUE.,
YCHEM_NL(10)%IGRIBTC=218010,
YCHEM_NL(10)%LQM=.false.,
YCHEM_NL(10)%LQM3D=.TRUE.,
YCHEM_NL(10)%LCOMAD=.true.,
YCHEM_NL(10)%LADV=.TRUE.,
YCHEM_NL(10)%LMASSFIX=.TRUE.,
YCHEM_NL(10)%BETAMFBC=-999.9,
YCHEM_NL(10)%LASSIM=.FALSE.,
YCHEM_NL(11)%CNAME='OLE',
YCHEM_NL(11)%NREQIN=1,
YCHEM_NL(11)%RMOLMASS=24.0,
YCHEM_NL(11)%IGRBCODE=217011,
YCHEM_NL(11)%LNEGFIX=.TRUE.,
YCHEM_NL(11)%IGRIBTC=218011,
YCHEM_NL(11)%LQM=.false.,
YCHEM_NL(11)%LQM3D=.TRUE.,
YCHEM_NL(11)%LCOMAD=.true.,
YCHEM_NL(11)%LADV=.TRUE.,
YCHEM_NL(11)%LMASSFIX=.TRUE.,
YCHEM_NL(11)%BETAMFBC=-999.9,
YCHEM_NL(11)%LASSIM=.FALSE.,
YCHEM_NL(12)%CNAME='ALD2',
YCHEM_NL(12)%NREQIN=1,
YCHEM_NL(12)%RMOLMASS=24.0,
YCHEM_NL(12)%IGRBCODE=217012,
YCHEM_NL(12)%LNEGFIX=.TRUE.,
YCHEM_NL(12)%IGRIBTC=218012,
YCHEM_NL(12)%IGRIBDV=221012,
YCHEM_NL(12)%HENRYA=17.0,
YCHEM_NL(12)%HENRYB=5000.0,
YCHEM_NL(12)%LQM=.false.,
YCHEM_NL(12)%LQM3D=.TRUE.,
YCHEM_NL(12)%LCOMAD=.true.,
YCHEM_NL(12)%LADV=.TRUE.,
YCHEM_NL(12)%LMASSFIX=.TRUE.,
YCHEM_NL(12)%BETAMFBC=-999.9,
YCHEM_NL(12)%LASSIM=.FALSE.,
YCHEM_NL(13)%CNAME='PAN',
YCHEM_NL(13)%NREQIN=1,
YCHEM_NL(13)%RMOLMASS=121.0,
YCHEM_NL(13)%IGRBCODE=217013,
YCHEM_NL(13)%LNEGFIX=.TRUE.,
YCHEM_NL(13)%IGRIBTC=218013,
YCHEM_NL(13)%IGRIBDV=221013,
YCHEM_NL(13)%HENRYA=2.9e+0,
YCHEM_NL(13)%HENRYB=5700.0,
YCHEM_NL(13)%LQM=.false.,
YCHEM_NL(13)%LQM3D=.TRUE.,
YCHEM_NL(13)%LCOMAD=.true.,
YCHEM_NL(13)%LADV=.TRUE.,
YCHEM_NL(13)%LMASSFIX=.TRUE.,
YCHEM_NL(13)%BETAMFBC=-999.9,
YCHEM_NL(13)%LASSIM=.FALSE.,
YCHEM_NL(14)%CNAME='ROOH',
YCHEM_NL(14)%NREQIN=1,
YCHEM_NL(14)%RMOLMASS=47.0,
YCHEM_NL(14)%IGRBCODE=217014,
YCHEM_NL(14)%LNEGFIX=.TRUE.,
YCHEM_NL(14)%IGRIBTC=218014,
YCHEM_NL(14)%IGRIBDV=221014,
YCHEM_NL(14)%HENRYA=340.0,
YCHEM_NL(14)%HENRYB=6000.0,
YCHEM_NL(14)%LQM=.false.,
YCHEM_NL(14)%LQM3D=.TRUE.,
YCHEM_NL(14)%LCOMAD=.true.,
YCHEM_NL(14)%LADV=.TRUE.,
YCHEM_NL(14)%LMASSFIX=.TRUE.,
YCHEM_NL(14)%BETAMFBC=-999.9,
YCHEM_NL(14)%LASSIM=.FALSE.,
YCHEM_NL(15)%CNAME='ONIT',
YCHEM_NL(15)%NREQIN=1,
YCHEM_NL(15)%RMOLMASS=77.0,
YCHEM_NL(15)%IGRBCODE=217015,
YCHEM_NL(15)%LNEGFIX=.TRUE.,
YCHEM_NL(15)%IGRIBTC=218015,
YCHEM_NL(15)%IGRIBDV=221015,
YCHEM_NL(15)%HENRYA=1.0e3,
YCHEM_NL(15)%HENRYB=6485.,
YCHEM_NL(15)%LQM=.false.,
YCHEM_NL(15)%LQM3D=.TRUE.,
YCHEM_NL(15)%LCOMAD=.true.,
YCHEM_NL(15)%LADV=.TRUE.,
YCHEM_NL(15)%LMASSFIX=.TRUE.,
YCHEM_NL(15)%BETAMFBC=-999.9,
YCHEM_NL(15)%LASSIM=.FALSE.,
YCHEM_NL(16)%CNAME='C5H8',
YCHEM_NL(16)%NREQIN=1,
YCHEM_NL(16)%RMOLMASS=68.1,
YCHEM_NL(16)%IGRBCODE=217016,
YCHEM_NL(16)%LNEGFIX=.TRUE.,
YCHEM_NL(16)%IGRIBTC=218016,
YCHEM_NL(16)%IGRIBDV=221016,
YCHEM_NL(16)%HENRYA=1.3e-2,
YCHEM_NL(16)%HENRYB=0.0,
YCHEM_NL(16)%LQM=.false.,
YCHEM_NL(16)%LQM3D=.TRUE.,
YCHEM_NL(16)%LCOMAD=.true.,
YCHEM_NL(16)%LADV=.TRUE.,
YCHEM_NL(16)%LMASSFIX=.TRUE.,
YCHEM_NL(16)%BETAMFBC=-999.9,
YCHEM_NL(16)%LASSIM=.FALSE.,
YCHEM_NL(17)%CNAME='SO2',
YCHEM_NL(17)%NREQIN=1,
YCHEM_NL(17)%RMOLMASS=64.1,
YCHEM_NL(17)%IGRBCODE=210122,
YCHEM_NL(17)%LNEGFIX=.TRUE.,
YCHEM_NL(17)%IGRIBTC=210126,
YCHEM_NL(17)%IGRIBDV=221017,
YCHEM_NL(17)%HENRYA=1.0e5,
YCHEM_NL(17)%HENRYB=3000.0,
YCHEM_NL(17)%LQM=.false.,
YCHEM_NL(17)%LQM3D=.TRUE.,
YCHEM_NL(17)%LCOMAD=.true.,
YCHEM_NL(17)%LADV=.TRUE.,
YCHEM_NL(17)%LMASSFIX=.TRUE.,
YCHEM_NL(17)%BETAMFBC=-999.9,
YCHEM_NL(17)%LASSIM=.TRUE.,
YCHEM_NL(17)%LADV5=.TRUE.,
YCHEM_NL(18)%CNAME='DMS',
YCHEM_NL(18)%NREQIN=1,
YCHEM_NL(18)%RMOLMASS=62.1,
YCHEM_NL(18)%IGRBCODE=217018,
YCHEM_NL(18)%LNEGFIX=.TRUE.,
YCHEM_NL(18)%IGRIBTC=218018,
YCHEM_NL(18)%LQM=.false.,
YCHEM_NL(18)%LQM3D=.TRUE.,
YCHEM_NL(18)%LCOMAD=.true.,
YCHEM_NL(18)%LADV=.TRUE.,
YCHEM_NL(18)%LMASSFIX=.TRUE.,
YCHEM_NL(18)%BETAMFBC=-999.9,
YCHEM_NL(18)%LASSIM=.FALSE.,
YCHEM_NL(19)%CNAME='NH3',
YCHEM_NL(19)%NREQIN=1,
YCHEM_NL(19)%RMOLMASS=17.0,
YCHEM_NL(19)%IGRBCODE=217019,
YCHEM_NL(19)%LNEGFIX=.TRUE.,
YCHEM_NL(19)%IGRIBTC=218019,
YCHEM_NL(19)%IGRIBDV=221019,
YCHEM_NL(19)%HENRYA=59.0,
YCHEM_NL(19)%HENRYB=4200.0,
YCHEM_NL(19)%LQM=.false.,
YCHEM_NL(19)%LQM3D=.TRUE.,
YCHEM_NL(19)%LCOMAD=.true.,
YCHEM_NL(19)%LADV=.TRUE.,
YCHEM_NL(19)%LMASSFIX=.TRUE.,
YCHEM_NL(19)%BETAMFBC=-999.9,
YCHEM_NL(19)%LASSIM=.FALSE.,
YCHEM_NL(20)%CNAME='SO4',
YCHEM_NL(20)%NREQIN=-1,
YCHEM_NL(20)%RMOLMASS=96.1,
YCHEM_NL(20)%IGRBCODE=217020,
YCHEM_NL(20)%LNEGFIX=.TRUE.,
YCHEM_NL(20)%IGRIBTC=218020,
YCHEM_NL(20)%IGRIBDV=221020,
YCHEM_NL(20)%HENRYA=3.2e11,
YCHEM_NL(20)%HENRYB=8700.0,
YCHEM_NL(20)%LQM=.false.,
YCHEM_NL(20)%LQM3D=.TRUE.,
YCHEM_NL(20)%LCOMAD=.true.,
YCHEM_NL(20)%LADV=.TRUE.,
YCHEM_NL(20)%LMASSFIX=.TRUE.,
YCHEM_NL(20)%BETAMFBC=-999.9,
YCHEM_NL(20)%LASSIM=.FALSE.,
YCHEM_NL(21)%CNAME='NH4',
YCHEM_NL(21)%NREQIN=1,
YCHEM_NL(21)%RMOLMASS=18.0,
YCHEM_NL(21)%IGRBCODE=217021,
YCHEM_NL(21)%LNEGFIX=.TRUE.,
YCHEM_NL(21)%IGRIBTC=218021,
YCHEM_NL(21)%IGRIBDV=221021,
YCHEM_NL(21)%HENRYA=3.2e11,
YCHEM_NL(21)%HENRYB=8700.0,
YCHEM_NL(21)%LQM=.false.,
YCHEM_NL(21)%LQM3D=.TRUE.,
YCHEM_NL(21)%LCOMAD=.true.,
YCHEM_NL(21)%LADV=.TRUE.,
YCHEM_NL(21)%LMASSFIX=.TRUE.,
YCHEM_NL(21)%BETAMFBC=-999.9,
YCHEM_NL(21)%LASSIM=.FALSE.,
YCHEM_NL(22)%CNAME='MSA',
YCHEM_NL(22)%NREQIN=1,
YCHEM_NL(22)%RMOLMASS=96.1,
YCHEM_NL(22)%IGRBCODE=217022,
YCHEM_NL(22)%LNEGFIX=.TRUE.,
YCHEM_NL(22)%IGRIBTC=218022,
YCHEM_NL(22)%HENRYA=3.2e11,
YCHEM_NL(22)%HENRYB=8700.0,
YCHEM_NL(22)%LQM=.false.,
YCHEM_NL(22)%LQM3D=.TRUE.,
YCHEM_NL(22)%LCOMAD=.true.,
YCHEM_NL(22)%LADV=.TRUE.,
YCHEM_NL(22)%LMASSFIX=.TRUE.,
YCHEM_NL(22)%BETAMFBC=-999.9,
YCHEM_NL(22)%LASSIM=.FALSE.,
YCHEM_NL(23)%CNAME='CH3COCHO',
YCHEM_NL(23)%NREQIN=1,
YCHEM_NL(23)%RMOLMASS=72.1,
YCHEM_NL(23)%IGRBCODE=217023,
YCHEM_NL(23)%LNEGFIX=.TRUE.,
YCHEM_NL(23)%IGRIBTC=218023,
YCHEM_NL(23)%IGRIBDV=221023,
YCHEM_NL(23)%HENRYA=3.4e3,
YCHEM_NL(23)%HENRYB=7500.0,
YCHEM_NL(23)%LQM=.false.,
YCHEM_NL(23)%LQM3D=.TRUE.,
YCHEM_NL(23)%LCOMAD=.true.,
YCHEM_NL(23)%LADV=.TRUE.,
YCHEM_NL(23)%LMASSFIX=.TRUE.,
YCHEM_NL(23)%BETAMFBC=-999.9,
YCHEM_NL(23)%LASSIM=.FALSE.,
YCHEM_NL(24)%CNAME='O3S',
YCHEM_NL(24)%NREQIN=1,
YCHEM_NL(24)%RMOLMASS=48.0,
YCHEM_NL(24)%IGRBCODE=217024,
YCHEM_NL(24)%LNEGFIX=.TRUE.,
YCHEM_NL(24)%IGRIBTC=218024,
YCHEM_NL(24)%IGRIBDV=221024,
YCHEM_NL(24)%HENRYA=1.0e-2,
YCHEM_NL(24)%HENRYB=2800.0,
YCHEM_NL(24)%LQM=.false.,
YCHEM_NL(24)%LQM3D=.TRUE.,
YCHEM_NL(24)%LCOMAD=.true.,
YCHEM_NL(24)%LADV=.TRUE.,
YCHEM_NL(24)%LMASSFIX=.TRUE.,
YCHEM_NL(24)%BETAMFBC=-999.9,
YCHEM_NL(24)%LASSIM=.FALSE.,
YCHEM_NL(25)%CNAME='Rn',
YCHEM_NL(25)%NREQIN=1,
YCHEM_NL(25)%RMOLMASS=222.0,
YCHEM_NL(25)%IGRBCODE=210181,
YCHEM_NL(25)%LNEGFIX=.TRUE.,
YCHEM_NL(25)%IGRIBTC=210183,
YCHEM_NL(25)%LQM=.false.,
YCHEM_NL(25)%LQM3D=.TRUE.,
YCHEM_NL(25)%LCOMAD=.true.,
YCHEM_NL(25)%LADV=.TRUE.,
YCHEM_NL(25)%LMASSFIX=.TRUE.,
YCHEM_NL(25)%BETAMFBC=-999.9,
YCHEM_NL(25)%LASSIM=.FALSE.,
YCHEM_NL(26)%CNAME='Pb',
YCHEM_NL(26)%NREQIN=1,
YCHEM_NL(26)%RMOLMASS=210.0,
YCHEM_NL(26)%IGRBCODE=217026,
YCHEM_NL(26)%LNEGFIX=.TRUE.,
YCHEM_NL(26)%IGRIBTC=218026,
YCHEM_NL(26)%HENRYA=3.2e11,
YCHEM_NL(26)%HENRYB=8700.0,
YCHEM_NL(26)%LQM=.false.,
YCHEM_NL(26)%LQM3D=.TRUE.,
YCHEM_NL(26)%LCOMAD=.true.,
YCHEM_NL(26)%LADV=.TRUE.,
YCHEM_NL(26)%LMASSFIX=.TRUE.,
YCHEM_NL(26)%BETAMFBC=-999.9,
YCHEM_NL(26)%LASSIM=.FALSE.,
YCHEM_NL(27)%CNAME='NO',
YCHEM_NL(27)%NREQIN=1,
YCHEM_NL(27)%RMOLMASS=30.0,
YCHEM_NL(27)%IGRBCODE=217027,
YCHEM_NL(27)%LNEGFIX=.TRUE.,
YCHEM_NL(27)%IGRIBTC=218027,
YCHEM_NL(27)%IGRIBDV=221027,
YCHEM_NL(27)%HENRYA=1.9e-3,
YCHEM_NL(27)%HENRYB=1600.0,
YCHEM_NL(27)%LQM=.false.,
YCHEM_NL(27)%LQM3D=.TRUE.,
YCHEM_NL(27)%LCOMAD=.true.,
YCHEM_NL(27)%LADV=.TRUE.,
YCHEM_NL(27)%LMASSFIX=.FALSE.,
YCHEM_NL(27)%LASSIM=.FALSE.,
YCHEM_NL(27)%LADV5=.TRUE.,
YCHEM_NL(28)%CNAME='HO2',
YCHEM_NL(28)%NREQIN=1,
YCHEM_NL(28)%RMOLMASS=33.0,
YCHEM_NL(28)%IGRBCODE=217028,
YCHEM_NL(28)%LNEGFIX=.TRUE.,
YCHEM_NL(28)%IGRIBTC=218028,
YCHEM_NL(28)%IGRIBDV=221028,
YCHEM_NL(28)%HENRYA=6.8e2,
YCHEM_NL(28)%HENRYB=0.0,
YCHEM_NL(28)%LQM=.false.,
YCHEM_NL(28)%LQM3D=.TRUE.,
YCHEM_NL(28)%LCOMAD=.true.,
YCHEM_NL(28)%LADV=.FALSE.,
YCHEM_NL(28)%LMASSFIX=.FALSE.,
YCHEM_NL(28)%LMASSFIX=.FALSE.,
YCHEM_NL(28)%LASSIM=.FALSE.,
YCHEM_NL(29)%CNAME='CH3O2',
YCHEM_NL(29)%NREQIN=1,
YCHEM_NL(29)%RMOLMASS=47.0,
YCHEM_NL(29)%IGRBCODE=217029,
YCHEM_NL(29)%LNEGFIX=.TRUE.,
YCHEM_NL(29)%IGRIBTC=218029,
YCHEM_NL(29)%IGRIBDV=221029,
YCHEM_NL(29)%HENRYA=1.5e1,
YCHEM_NL(29)%HENRYB=3700.0,
YCHEM_NL(29)%LQM=.false.,
YCHEM_NL(29)%LQM3D=.TRUE.,
YCHEM_NL(29)%LCOMAD=.true.,
YCHEM_NL(29)%LADV=.FALSE.,
YCHEM_NL(29)%LMASSFIX=.FALSE.,
YCHEM_NL(29)%LMASSFIX=.FALSE.,
YCHEM_NL(29)%LASSIM=.FALSE.,
YCHEM_NL(30)%CNAME='OH',
YCHEM_NL(30)%NREQIN=1,
YCHEM_NL(30)%RMOLMASS=17.0,
YCHEM_NL(30)%IGRBCODE=217030,
YCHEM_NL(30)%LNEGFIX=.TRUE.,
YCHEM_NL(30)%IGRIBTC=218030,
YCHEM_NL(30)%LQM=.false.,
YCHEM_NL(30)%LQM3D=.TRUE.,
YCHEM_NL(30)%LCOMAD=.true.,
YCHEM_NL(30)%LADV=.FALSE.,
YCHEM_NL(30)%LMASSFIX=.FALSE.,
YCHEM_NL(30)%LMASSFIX=.FALSE.,
YCHEM_NL(30)%LASSIM=.FALSE.,
YCHEM_NL(30)%LADV5=.TRUE.,
YCHEM_NL(31)%CNAME='NO2',
YCHEM_NL(31)%NREQIN=1,
YCHEM_NL(31)%RMOLMASS=46.0,
YCHEM_NL(31)%IGRBCODE=210121,
YCHEM_NL(31)%LNEGFIX=.TRUE.,
YCHEM_NL(31)%IGRIBTC=210125,
YCHEM_NL(31)%IGRIBDV=221031,
YCHEM_NL(31)%HENRYA=1.2e-2,
YCHEM_NL(31)%HENRYB=2400.0,
YCHEM_NL(31)%LQM=.false.,
YCHEM_NL(31)%LQM3D=.TRUE.,
YCHEM_NL(31)%LCOMAD=.true.,
YCHEM_NL(31)%LADV=.TRUE.,
YCHEM_NL(31)%LMASSFIX=.FALSE.,
YCHEM_NL(31)%LASSIM=.TRUE.,
YCHEM_NL(31)%LADV5=.TRUE.,
YCHEM_NL(32)%CNAME='NO3',
YCHEM_NL(32)%NREQIN=1,
YCHEM_NL(32)%RMOLMASS=62.0,
YCHEM_NL(32)%IGRBCODE=217032,
YCHEM_NL(32)%LNEGFIX=.TRUE.,
YCHEM_NL(32)%IGRIBTC=218032,
YCHEM_NL(32)%IGRIBDV=221032,
YCHEM_NL(32)%HENRYA=3.8e-2,
YCHEM_NL(32)%HENRYB=0.,
YCHEM_NL(32)%LQM=.false.,
YCHEM_NL(32)%LQM3D=.TRUE.,
YCHEM_NL(32)%LCOMAD=.true.,
YCHEM_NL(32)%LADV=.TRUE.,
YCHEM_NL(32)%LMASSFIX=.FALSE.,
YCHEM_NL(32)%LASSIM=.FALSE.,
YCHEM_NL(33)%CNAME='N2O5',
YCHEM_NL(33)%NREQIN=1,
YCHEM_NL(33)%RMOLMASS=108.0,
YCHEM_NL(33)%IGRBCODE=217033,
YCHEM_NL(33)%LNEGFIX=.TRUE.,
YCHEM_NL(33)%IGRIBTC=218033,
YCHEM_NL(33)%IGRIBDV=221033,
YCHEM_NL(33)%HENRYA=2.1e+1,
YCHEM_NL(33)%HENRYB=3400.0,
YCHEM_NL(33)%LQM=.false.,
YCHEM_NL(33)%LQM3D=.TRUE.,
YCHEM_NL(33)%LCOMAD=.true.,
YCHEM_NL(33)%LADV=.TRUE.,
YCHEM_NL(33)%LMASSFIX=.TRUE.,
YCHEM_NL(33)%BETAMFBC=-999.9,
YCHEM_NL(33)%LASSIM=.FALSE.,
YCHEM_NL(34)%CNAME='HO2NO2',
YCHEM_NL(34)%NREQIN=1,
YCHEM_NL(34)%RMOLMASS=79.0,
YCHEM_NL(34)%IGRBCODE=217034,
YCHEM_NL(34)%LNEGFIX=.TRUE.,
YCHEM_NL(34)%IGRIBTC=218034,
YCHEM_NL(34)%IGRIBDV=221034,
YCHEM_NL(34)%HENRYA=1.2e+4,
YCHEM_NL(34)%HENRYB=6900.0,
YCHEM_NL(34)%LQM=.false.,
YCHEM_NL(34)%LQM3D=.TRUE.,
YCHEM_NL(34)%LCOMAD=.true.,
YCHEM_NL(34)%LADV=.TRUE.,
YCHEM_NL(34)%LMASSFIX=.TRUE.,
YCHEM_NL(34)%BETAMFBC=-999.9,
YCHEM_NL(34)%LASSIM=.FALSE.,
YCHEM_NL(35)%CNAME='C2O3',
YCHEM_NL(35)%NREQIN=1,
YCHEM_NL(35)%RMOLMASS=75.0,
YCHEM_NL(35)%IGRBCODE=217035,
YCHEM_NL(35)%LNEGFIX=.TRUE.,
YCHEM_NL(35)%IGRIBTC=218035,
YCHEM_NL(35)%LQM=.false.,
YCHEM_NL(35)%LQM3D=.TRUE.,
YCHEM_NL(35)%LCOMAD=.true.,
YCHEM_NL(35)%LADV=.FALSE.,
YCHEM_NL(35)%LMASSFIX=.FALSE.,